gridcapa-cse-lib/network-processing/src/test/resources/20210219_1630_2D5_CO_CSE1.uct
##C 2007.05.01
Generated by powsybl, 2021-09-07T10:33:16.755+02:00
Case date: 2021-02-19T16:30:00.000+01:00
##N
##ZAT
O6MNGN21 Meiningen    0 2 239.60 65.3456 1.05466 -13.517 -97.079 0.00000 -117.00 200.000 -200.00                               F
O6MNGN22 Meiningen    0 0        65.3456 1.05466 -13.517 0.00000 0.00000 -117.00 1.05466 0.00000                               F
O6WALG21 Walgauwerk   0 0        0.00000 0.00000 0.00000 -0.5336 0.00000 -86.000 0.00000 -0.5336                               F
O6WERB21 Werben       0 2 239.72 153.421 0.00000 -34.544 2.53233 0.00000 -183.00 200.000 -200.00                               F
O6WERB22 Werben       0 0        153.421 0.00000 -34.544 -6.1825 0.00000 -183.00 0.00000 -6.1825                               F
O9KIRB21 Kirchbichl   0 0        276.877 9.03170 -82.405 0.00000 0.00000 -243.97 9.03170 0.00000                               F
O9PRUT21 Prutz        0 2 238.74 41.6457 0.00000 -25.833 -16.619 0.00000 -431.00 400.000 -400.00                               F
O9STRA21 Strass       0 0        0.00000 0.00000 0.00000 0.00000
O9THAU21 Thaur        0 0        43.8335 26.0728 -14.418 -3.3329 0.00000 -136.91 26.0728 -3.3329                               F
O9VILL21 Vill         0 2 237.53 137.640 14.5504 -22.028 -33.313 0.00000 -77.640 200.000 -200.00                               F
O9YVIL21 Y_Vill       0 0        0.00000 0.00000 0.00000 0.00000
O9YVIL22 Y_Vill       0 0        0.00000 0.00000 0.00000 0.00000
OABW  51 AbwindenAste 0 0        20.2301 0.00000 -120.15 0.00000 0.00000 -175.50                                               F
OAIGER51 Aigerding    0 0        25.2557 0.00000 0.00000 0.00000
OALTEN21 Altenwoerth  0 0        0.00000 7.89339 -72.092 0.00000 0.00000 -333.00 7.89339 0.00000                               F
OALTEN22 Altenwoerth  0 0        0.00000 7.60909 -72.092 0.00000 0.00000 -333.00 7.60909 0.00000                               F
OALTEN23 Altenwoerth  0 0        0.00000 7.80709 -72.092 0.00000 0.00000 -333.00 7.80709 0.00000                               F
OAMSTE51 Amstetten    0 0        161.886 0.00000 0.00000 0.00000
OAMSTE52 Amstetten    0 0        0.00000 0.00000 0.00000 0.00000
OANDAU51 Andau        0 0        0.00000 0.00000 -16.169 0.00000 0.00000 -247.53                                               F
OANTHI51 Anthiesenhof 0 0        14.2537 0.00000 0.00000 0.00000
OASCHA21 Aschach      0 0        0.00000 28.9347 -175.22 0.00000 0.00000 -288.00 28.9347 0.00000                               F
OBERGE51 Bergern      0 0        0.00000 0.00000 -96.122 0.00000 0.00000 -126.00                                               F
OBISAM11 Bisamberg    0 0        211.983 92.0357 -62.059 0.00000 1.84000 -1002.4 92.0357 0.00000                               F
OBISAM21 Bisamberg    0 0        387.656 0.00000 -260.62 -73.197 96.6000 -505.87 0.00000 -73.197                               F
ODUERN11 Duernrohr    0 2 414.29 0.00000 0.00000 0.00000 -187.53                                                               F
ODUERN12 Duernrohr    0 0        0.00000 0.00000 0.00000 0.00000
ODUERN13 Duernrohr    0 0        0.00000 0.00000 0.00000 0.00000
ODUERN21 Duernrohr    0 0        185.235 195.459 -71.586 0.00000 73.6000 -486.50 195.459 0.00000                               F
OEDLIN21 Edling       0 0        0.00000 3.59380 -46.059 0.00000 0.00000 -86.000 3.59380 0.00000                               F
OEGGLF51 Egglfing     0 0        0.00000 0.00000 -40.051 0.00000 0.00000 -84.000                                               F
OEISEN51 Eisenstadt   0 2 119.90 83.3405 0.00000 -3.2468 -40.430 0.00000 -15.204 100.000 -100.00                               F
OERING51 Ering        0 0        0.00000 0.00000 -38.048 0.00000 0.00000 -75.000                                               F
OERLAU51 Erlauf       0 0        107.925 0.00000 0.00000 0.00000
OERNST11 Ernsthofen   0 0        0.00000 0.00000 0.00000 -16.445                 0.00000 -16.445                               F
OERNST21 Ernsthofen   0 2 235.62 0.00000 214.563 0.00000 -218.64                 300.000 -300.00                               F
OERNST22 Ernsthofen   0 0        0.00000 0.00000 0.00000 0.00000
OERNST51 Ernsthofen   0 0        0.00000 0.00000 -148.00 0.00000 0.00000 -402.29                                               F
OERNST52 Ernsthofen   0 0        0.00000 0.00000 0.00000 0.00000
OERNST53 Ernsthofen   0 0        0.00000 0.00000 0.00000 0.00000
OETZER11 Etzersdorf   0 0        0.00000 0.00000 -33.478 -68.786 7.36000 -839.28 0.00000 -68.786                               F
OFEIST21 Feistritz    0 0        0.00000 6.57585 -41.052 0.00000 0.00000 -88.000 6.57585 0.00000                               F
OGERLO11 Gerlos       0 0        0.00000 0.00000 0.00000 0.00000 0.00000 -135.00                                               F
OGMUND51 Gmunden      0 0        138.743 0.00000 0.00000 0.00000
OGREUT21 Greuth       0 0        78.9078 0.00000 0.00000 -17.324                 0.00000 -17.324                               F
OGRFST21 Greifenstein 0 0        0.00000 20.3052 -192.24 0.00000 0.00000 -297.00 20.3052 0.00000                               F
OGRIK 51 Grieskirchen 0 0        29.8865 0.00000 0.00000 0.00000
OHAEUS21 Haeusling    0 0        0.00000 0.00000 0.00000 0.00000 360.000 -360.00                                               F
OHAUSR21 Hausruck_Lam 0 2 231.16 0.00000 58.2149 0.00000 -76.803                 300.000 -300.00                               F
OHAUSR22 Hausruck_Lam 0 0        0.00000 0.00000 0.00000 0.00000
OHAUSR51 Hausruck     0 0        0.00000 0.00000 -65.734 0.00000 0.00000 -255.85                                               F
OHAUSR52 Hausruck     0 0        0.00000 0.00000 0.00000 0.00000
OHAUSR53 Hausruck     0 0        0.00000 0.00000 0.00000 0.00000
OHESSE21 Hessenberg   0 0        191.481 0.00000 -79.455 -62.211 76.8852 -397.09 0.00000 -62.211                               F
OHULI 51 HuetteLinz   0 0        271.334 0.00000 -185.24 0.00000 0.00000 -365.00                                               F
OJOCHE21 Jochenstein  0 0        0.00000 0.00000 -96.885 -3.8698 0.00000 -132.81 0.00000 -3.8698                               F
OJOCHE51 Jochenstein  0 0        0.00000 0.00000 0.00000 0.00000
OKAINA11 Kainachtal   0 2 412.32 577.010 150.405 -114.13 -64.567 29.4336 -796.03 400.000 -400.00                               F
OKAPRU11 Kaprun Haupt 0 0        161.712 0.00000 -161.17 -18.546 263.500 -1222.8 0.00000 -18.546                               F
OKLAUS21 Klaus        0 0        0.00000 0.00000 -2.0025 0.00000 0.00000 -20.000                                               F
OKLAUS22 Klaus        0 0        0.00000 0.00000 -2.0025 -1.9775 0.00000 -20.000 0.00000 -1.9775                               F
OKLEDE21 Kledering    0 0        20.1375 0.00000 0.00000 -0.5745 96.6000 0.00000 0.00000 -0.5745                               F
OKRONS11 Kronsdorf    0 0        0.00000 0.00000 0.00000 0.00000
OKWDUR11 KW Duernrohr 0 0        0.00000 0.53340 0.00000 0.00000 0.00000 -332.00 0.53340 0.00000                               F
OLAAKI51 Laakirchen   0 0        92.9860 0.00000 -53.068 0.00000 0.00000 -59.870                                               F
OLENZI51 Lenzing      0 0        22.6519 0.00000 -77.000 0.00000 0.00000 -77.000                                               F
OLIENN11 Lienz        0 0        0.00000 0.00000 0.00000 -16.398                 0.00000 -16.398                               F
OLIENN21 Lienz        0 0        72.6392 191.753 -38.449 0.00000 58.3200 -225.14 191.753 0.00000                               F
OLIENN22 Lienz        0 0        0.00000 0.00000 0.00000 0.00000
OLIMBG11 LimbergII    0 0        0.00000 2.00235 0.00000 0.00000 480.000 -480.00 2.00235 0.00000                               F
OLINZN51 LinzNord     0 0        242.761 16.3473 -49.062 0.00000 0.00000 -158.00 16.3473 0.00000                               F
OLINZN52 LinzNord     0 0        0.00000 16.3473 -193.25 0.00000 0.00000 -208.00 16.3473 0.00000                               F
OLINZO51 LinzOst      0 0        52.8036 0.00000 0.00000 0.00000
OMALTA21 Malta Haupts 0 2 234.85 175.088 6.69638 -183.98 7.22705 556.739 -1500.0 500.000 -500.00                               F
OMALTA22 Malta Haupts 0 0        0.00000 0.00000 -183.98 -25.352 556.739 -1500.0 0.00000 -25.352                               F
OMATTE51 Mattersburg  0 0        24.8299 0.00000 -7.3716 -6.6760 0.00000 -57.136 0.00000 -6.6760                               F
OMATTI51 Mattighofen  0 0        63.9242 29.0000 -9.7124 0.00000 0.00000 -55.741 29.0000 0.00000                               F
OMAYRH21 Mayrhofen    0 2 237.86 0.00000 9.39504 0.00000 -41.236                 300.000 -300.00                               F
OMAYRH22 Mayrhofen    0 0        0.00000 0.00000 0.00000 -0.3395 0.00000 -367.50 0.00000 -0.3395                               F
OMELLA11 Mellach      0 0        0.00000 0.00000 0.00000 -0.0334 0.00000 -410.00 0.00000 -0.0334                               F
ONEUSI21 Neusiedl am  0 0        0.00000 4.53483 0.00000 0.00000                 4.53483 0.00000                               F
ONEUSI51 Neusiedl am  0 0        66.5032 0.00000 -10.586 -14.500 0.00000 -138.44 0.00000 -14.500                               F
ONEUSI52 Neusiedl am  0 0        0.00000 0.00000 -7.8861 -14.500 0.00000 -120.73 0.00000 -14.500                               F
OOBERS11 Obersielach  0 0        0.00000 0.00000 0.00000 -9.1522                 0.00000 -9.1522                               F
OOBERS12 Obersielach  0 0        0.00000 0.00000 0.00000 0.00000
OOBERS21 Obersielach  0 0        272.148 127.782 -190.49 0.00000 88.5400 -562.25 127.782 0.00000                               F
OOHLSD51 Ohlsdorf     0 0        0.00000 0.00000 0.00000 0.00000
OOSTST11 Oststeiermar 0 0        258.808 26.9836 -66.986 0.00000 14.8696 -375.34 26.9836 0.00000                               F
OOTH  51 Ottensheim   0 0        52.5985 0.00000 -155.20 0.00000 0.00000 -259.39                                               F
OOTH  52 Ottensheim   0 0        0.00000 0.00000 0.00000 0.00000
OPASSA51 Passau       0 0        0.00000 0.00000 -44.056 0.00000 0.00000 -88.800                                               F
OPETER11 St.Peter     0 0        0.00000 6.52944 0.00000 0.00000                 6.52944 0.00000                               F
OPETER21 St.Peter     0 2 234.84 0.00000 140.785 0.00000 -237.22                 350.000 -350.00                               F
OPETER22 St.Peter     0 0        0.00000 0.00000 0.00000 0.00000
OPETER24 St.Peter     0 0        0.00000 0.00000 0.00000 0.00000
OPETER51 St.Peter     0 0        16.8129 0.00000 -48.061 0.00000 0.00000 -96.000                                               F
OPETER52 St.Peter     0 0        0.00000 0.00000 0.00000 0.00000
OPICHL51 Pichling     0 0        0.00000 0.00000 0.00000 0.00000
OPOCKI51 Pocking      0 0        90.5785 0.00000 -40.902 0.00000 0.00000 -285.95                                               F
OPYHRN21 Phyrn        0 0        8.59048 0.00000 0.00000 -3.9797                 0.00000 -3.9797                               F
ORANNA51 Ranna        0 0        40.4604 0.00000 -16.020 0.00000 16.5000 -21.100                                               F
ORANNA52 Ranna        0 0        0.00000 0.00000 0.00000 0.00000
ORANSH51 Ranshofen    0 0        46.8926 0.00000 0.00000 0.00000
OREGAU51 Regau        0 0        20.8963 0.00000 0.00000 0.00000
OREISS21 KW Reisseck  0 0        0.00000 2.22778 0.00000 0.00000 430.000 -430.00 2.22778 0.00000                               F
ORIED 51 Ried         0 0        45.1986 11.5387 -7.7108 0.00000 0.00000 -30.745 11.5387 0.00000                               F
ORIED 52 Ried         0 0        0.00000 11.5387 0.00000 0.00000                 11.5387 0.00000                               F
OROSEG21 Rosegg       0 0        0.00000 3.76549 -36.046 0.00000 0.00000 -80.600 3.76549 0.00000                               F
OROSSB51 Rossbach     0 0        19.6952 0.00000 -7.7098 0.00000 0.00000 -30.741                                               F
OROSSH21 Rosshag      0 0        0.00000 0.00000 0.00000 0.00000 130.000 -115.00                                               F
OROSSH22 Rosshag      0 0        0.00000 0.00000 0.00000 0.00000 130.000 -115.00                                               F
OROTEN51 Suedburgenla 0 0        97.5467 0.00000 -12.305 0.00000 0.00000 -43.181                                               F
OSALZA21 Salzach      0 0        354.131 0.00000 -93.151 -33.770 0.00000 -249.23 0.00000 -33.770                               F
OSALZB21 Salzburg     0 0        0.00000 0.00000 0.00000 0.00000
OSARA 11 Sarasdorf    0 0        15.6994 0.00000 -31.991 -19.783 0.00000 -395.95 0.00000 -19.783                               F
OSATTL21 Sattledt     0 0        11.4405 1.76472 0.00000 0.00000                 1.76472 0.00000                               F
OSCHAE21 Schaerding   0 0        0.00000 0.00000 -21.027 0.00000 0.00000 -96.000                                               F
OSCHAE22 Schaerding   0 0        0.00000 3.01739 -21.027 0.00000 0.00000 -96.000 3.01739 0.00000                               F
OSCHWA11 Schwarzenbac 0 0        0.00000 48.3194 0.00000 0.00000 0.00000 -412.00 48.3194 0.00000                               F
OSTEYM51 Steyrermuehl 0 0        98.4224 0.00000 0.00000 0.00000 0.00000 -40.000                                               F
OSTEYM52 Steyrermuehl 0 0        0.00000 0.00000 -6.0076 0.00000 0.00000 -18.000                                               F
OSTEYM53 Steyrermuehl 0 0        58.5450 0.00000 0.00000 0.00000 57.0000 0.00000                                               F
OSTEYN51 SteyrNord    0 0        198.256 0.00000 -75.096 0.00000 0.00000 -182.20                                               F
OSTMAR51 SanktMartin  0 2 119.90 38.7749 0.00000 -5.2082 -0.2290 0.00000 -53.248 100.000 -100.00                               F
OSUEDB11 Suedburgenla 0 0        0.00000 14.5421 0.00000 0.00000                 14.5421 0.00000                               F
OTAUER11 Tauern       0 0        0.00000 0.00000 0.00000 -8.5653                 0.00000 -8.5653                               F
OTAUER12 Tauern       0 0        0.00000 0.00000 0.00000 0.00000
OTAUER21 Tauern       0 0        0.00000 0.00000 0.00000 0.00000
OTAUER22 Tauern       0 0        0.00000 106.068 0.00000 0.00000                 106.068 0.00000                               F
OTERNI21 Ternitz      0 0        319.480 37.4729 -38.716 0.00000 0.68760 -231.94 37.4729 0.00000                               F
OTERNI22 Ternitz      0 0        0.00000 0.00000 0.00000 0.00000
OTIMEL51 Timelkam     0 0        64.9542 0.00000 -9.0115 0.00000 0.00000 -409.50                                               F
OTIMEL52 Timelkam     0 0        60.5638 0.00000 0.00000 0.00000 60.0000 -60.000                                               F
OTRAUN51 Traunfall    0 0        38.6215 0.00000 0.00000 0.00000
OUNTER51 Unterach     0 0        67.5592 0.00000 0.00000 0.00000
OUNTER52 Unterach     0 0        0.00000 0.00000 0.00000 0.00000
OVOEKL51 Voecklabruck 0 0        27.1255 0.00000 0.00000 0.00000
OWALLS21 Wallsee      0 0        0.00000 11.5084 -150.19 0.00000 0.00000 -213.00 11.5084 0.00000                               F
OWEGSC51 Wegscheid    0 0        40.4604 0.00000 0.00000 0.00000
OWEGSC52 Wegscheid    0 0        0.00000 0.00000 0.00000 0.00000
OWEISS21 Weissenbach  0 0        128.864 0.00000 -54.268 -26.631 23.7640 -194.73 0.00000 -26.631                               F
OWELS 51 Wels         0 0        214.439 0.00000 -68.087 0.00000 0.00000 -156.69                                               F
OWESTT11 Westtirol    0 2 411.85 0.00000 0.00000 0.00000 -130.98                 300.000 -300.00                               F
OWESTT21 Westtirol    0 0        191.629 47.0861 -47.661 0.00000 64.4000 -146.67 47.0861 0.00000                               F
OWIEN 11 Wien_SuedOst 0 2 412.38 0.00000 0.00000 0.00000 -68.230                 200.000 -200.00                               F
OWIEN 21 Wien_SuedOst 0 0        379.032 226.964 -153.50 0.00000 0.00000 -363.25 226.964 0.00000                               F
OWINO 11 Wien Nord    0 0        202.748 61.5228 -128.00 0.00000 0.00000 -196.71 61.5228 0.00000                               F
OWISU 11 Wien Sued    0 0        864.119 313.918 -1061.3 -106.44 0.00000 -1277.0 313.918 -106.44                               F
OYBBSF21 Ybbsfeld     0 0        0.00000 0.00000 0.00000 -11.272                 0.00000 -11.272                               F
OYBBSF51 Ybbsfeld     0 0        0.00000 0.00000 -25.492 0.00000 0.00000 -121.33                                               F
OYFAME51 Dreibein_Ybb 0 0        0.00000 0.00000 0.00000 0.00000
OYFAME52 Dreibein_Ybb 0 0        0.00000 0.00000 0.00000 0.00000
OYMELL11 Y_Mellach    0 0        0.00000 0.00000 0.00000 0.00000
OYMELL12 Y_Mellach    0 0        0.00000 0.00000 0.00000 0.00000
OYPBEU21 Ybbs_Persenb 0 0        0.00000 7.28198 -48.728 0.00000 0.00000 -238.80 7.28198 0.00000                               F
OYPBEU22 Ybbs_Persenb 0 0        0.00000 1.61890 -48.728 0.00000 0.00000 -238.80 1.61890 0.00000                               F
OYPBEU23 Ybbs_Persenb 0 0        0.00000 2.46546 -48.728 0.00000 0.00000 -238.80 2.46546 0.00000                               F
OYSALZ21 Salzburg     0 0        0.00000 0.00000 0.00000 0.00000
OYSALZ22 Salzburg     0 0        0.00000 0.00000 0.00000 0.00000
OZELL 11 ZellZiller   0 0        0.00000 0.00000 0.00000 -37.382                 0.00000 -37.382                               F
OZELL 21 ZellZiller   0 0        77.7925 150.498 -15.320 0.00000 0.00000 -159.62 150.498 0.00000                               F
OZELL 22 ZellZiller   0 0        0.00000 0.00000 0.00000 -32.930                 0.00000 -32.930                               F
OZELL 23 ZellZiller   0 0        0.00000 0.00000 0.00000 -32.930                 0.00000 -32.930                               F
OZELTW21 Zeltweg      0 0        61.4953 10.9554 -33.828 0.00000 0.00000 -200.12 10.9554 0.00000                               F
OZURND11 Zurndorf     0 2 413.72 0.00000 61.7149 0.00000 -24.695                 100.000 -100.00                               F
OZURND51 Zurndorf     0 0        0.00000 0.00000 -11.722 0.00000 0.00000 -178.78                                               F
OZURND52 Zurndorf     0 0        0.00000 0.00000 -23.628 0.00000 0.00000 -361.73                                               F
##ZAL
AAES  5  AES          0 0        0.00000 0.00000 0.00000 0.00000
AASHT15  HPP ASHTA 1  0 2 110.65 0.00000 0.00000 -25.032 -9.5731 0.00000 -50.000 5.00000 -10.000                               F
AASHT25  HPP ASHTA 2  0 2 110.69 0.00000 0.00000 -25.032 -9.5061 0.00000 -50.000 5.00000 -10.000                               F
ABABIC2  BABIC        0 0        0.00000 0.00000 0.00000 0.00000
ABABIC5  BABIC        0 0        11.2552 6.31278 0.00000 0.00000
ABALSH5  BALSH        0 0        24.1183 3.15639 0.00000 0.00000
ABANJE5  HPP BANJE    0 2 107.37 1.60789 0.00000 -61.078 -9.2473 0.00000 -70.000 5.00000 -10.000                               F
ABCURR5  B CURRI      0 0        6.43155 3.15639 0.00000 0.00000
ABELE 5  HPP BELE     0 2 115.10 0.00000 0.00000 -10.013 4.90543 0.00000 -16.000 5.00000 -10.000                               F
ABELSH5  BELSH        0 0        6.43155 3.15639 0.00000 0.00000
ABERAT5  BERAT        0 0        6.43155 3.15639 0.00000 0.00000
ABISHN5  HPP Bishnice 0 2 115.00 0.00000 0.00000 -2.0025 -9.4363 0.00000 -8.0000 5.00000 -10.000                               F
ABISTR3  BISTRRIC     0 0        0.00000 0.00000 0.00000 0.00000
ABISTR5  HPP BISTRIC  0 2 96.930 4.82367 3.15639 -15.019 -1.1444 0.00000 -27.000 5.00000 -10.000                               F
ABULQI5  BULQIZ       0 0        3.21577 1.57820 0.00000 0.00000
ABURRE2  BURREL       0 0        0.00000 0.00000 0.00000 0.00000
ABURRL5  BURREL       0 0        28.9419 6.31278 0.00000 0.00000
ABUSHA5  BUSHAT       0 0        3.21577 1.57820 0.00000 0.00000
ACEMER5  HPP Cemerica 0 2 114.63 0.00000 0.00000 -5.0064 -2.9559 0.00000 -12.000 5.00000 -10.000                               F
ACERIK5  CERRIK       0 0        1.60789 1.57820 0.00000 0.00000
ACERRU5  HPP CERRU    0 2 114.35 0.00000 0.00000 -5.0064 -10.000 0.00000 -70.000 5.00000 -10.000                               F
ADARDA5  HPP DARDHA   0 2 112.98 0.00000 0.00000 -6.0076 -9.8855 0.00000 -8.0000 5.00000 -10.000                               F
ADARSI5  HPP Darsi    0 2 113.16 0.00000 0.00000 -5.0064 -10.000 0.00000 -8.0000 5.00000 -10.000                               F
ADEGSK5  DEG SK       0 0        0.00000 0.00000 0.00000 0.00000
ADGPLE5  DG PLE       0 0        0.00000 0.00000 0.00000 0.00000
ADGSHU5  DEG SHU      0 0        0.00000 0.00000 0.00000 0.00000
ADRENO5  DRENOVE      0 0        1.60789 1.57820 0.00000 0.00000
ADSHK25  DEG SHK      0 0        0.00000 0.00000 0.00000 0.00000
AELBS12  ELBASAN 1    0 0        0.00000 0.00000 0.00000 0.00000
AELBS15  ELBASAN 1    0 0        9.64733 4.73459 0.00000 0.00000
AELBS21  ELBASAN 2    0 0        0.00000 0.00000 0.00000 0.00000
AELBS22  ELBASAN 2    0 0        0.00000 0.00000 0.00000 0.00000
AELKOM5  ELKOM        0 0        16.0789 7.89098 0.00000 0.00000
AELKUR2  ELKURUM      0 0        11.2552 0.00000 0.00000 0.00000
AERSEK5  ERSEK        0 0        16.0789 7.89098 0.00000 0.00000
AFANG 2  HPP FANG     0 2 220.64 0.00000 0.00000 -68.133 -12.003 0.00000 -70.000 5.00000 -17.000                               F
AFARKA5  FARKA        0 0        11.2552 1.57820 0.00000 0.00000
AFARRZ5  FUSH ARREZ   0 0        4.82367 1.57820 0.00000 0.00000
AFIBER5  FIBER        0 0        17.6868 7.89098 0.00000 0.00000
AFIER 2  FIER 220     0 0        0.00000 0.00000 0.00000 0.00000
AFIER 5  FIER         0 0        51.4524 11.0474 0.00000 0.00000
AFIER 5Q Fict. shunt  1 0        0.00000 0.00000 0.00000 0.00000
AFIERZ2  HPP FIERZA   0 2 225.36 0.00000 0.00000 -380.66 -13.686 0.00000 -500.00 10.0000 -240.00                               F
AFIERZ5  FIERZ        0 0        0.00000 0.00000 0.00000 0.00000
AFKCIM2  FKRUJE       0 0        20.9026 1.57820 0.00000 0.00000
AFKRUJ5  FUSH KRUJE   0 0        6.43155 3.15639 0.00000 0.00000
AFKUQE5  FUSH KUQ     0 0        14.4710 6.31278 0.00000 0.00000
AFRZVJ5  FIERZ VJ     0 0        0.00000 0.00000 0.00000 0.00000
AGJIRE5  GJIROKASTE   0 0        6.43155 3.15639 0.00000 0.00000
AGJIRO5  GJIROKASTER  0 0        14.4710 6.31278 0.00000 0.00000
AGJORI5  HPP Gjorice  0 2 115.00 0.00000 0.00000 -9.0115 0.95337 0.00000 -12.000 5.00000 -10.000                               F
AGKUQ 5  GUR KUQ      0 0        1.60789 1.57820 0.00000 0.00000
AGOLEM5  GOLEM        0 0        11.2552 6.31278 0.00000 0.00000
AGSA  5  GSA          0 0        19.2947 1.57820 0.00000 0.00000
AIBE  5  IBE          0 0        0.00000 0.00000 0.00000 0.00000
AKAFAR5  KAFARAJ      0 0        4.82367 1.57820 0.00000 0.00000
AKAJAN5  KAJAN        0 0        0.00000 0.00000 0.00000 0.00000
AKALIM5  KALIMASH     0 0        6.43155 3.15639 0.00000 0.00000
AKASHA51 KASHAR 51    0 0        72.3549 7.89098 0.00000 0.00000
AKAVAJ5  KAVAJ        0 0        20.9026 9.46918 0.00000 0.00000
AKELCY5  KELCYR       0 0        3.21577 1.57820 0.00000 0.00000
AKOLAC2  KOLAC        0 0        9.64733 4.73459 0.00000 0.00000
AKOMAN1  HPP KOMAN    0 0        0.00000 0.00000 0.00000 0.00000 0.00000 -300.00 200.000 -320.00                               F
AKOMAN2  HPP KOMAN    0 2 225.00 0.00000 0.00000 -580.56 61.6658 0.00000 -600.00 200.000 -320.00                               F
AKOPLI2  KOPLIK       0 0        0.00000 1.00000 0.00000 0.00000
AKORCE5  KORCE        0 0        17.6868 7.89098 0.00000 0.00000
AKOSMC5  KOSMC        0 0        0.00000 0.00000 0.00000 0.00000
AKRAHS5  KRAHES       0 0        1.60789 0.00000 0.00000 0.00000
AKRUJE5  KRUJE        0 0        6.43155 3.15639 0.00000 0.00000
AKUCOV5  KUCOVE       0 0        17.6868 9.46918 0.00000 0.00000
AKUKES5  KUKES        0 0        0.00000 0.00000 0.00000 0.00000
AKURBN5  KURBNESH     0 0        0.00000 0.00000 0.00000 0.00000
ALAC1 5  LAC 1        0 0        8.03944 3.15639 0.00000 0.00000
ALAC2 5  LAC 2        0 0        1.60789 1.57820 0.00000 0.00000
ALAPAJ5  HPP LAPAJ    0 2 115.00 0.00000 0.00000 -10.013 2.37461 0.00000 -12.000 5.00000 -10.000                               F
ALENGA5  HPP LENGAR   0 2 106.20 0.00000 0.00000 -9.0115 -9.4464 0.00000 -12.000 5.00000 -10.000                               F
ALEZHA5  LEZHA        0 0        25.7262 12.6256 0.00000 0.00000
ALIBRZ5  LIBRAZHD     0 2 111.74 0.00000 0.00000 -8.0102 -9.3314 0.00000 -16.000 5.00000 -10.000                               F
ALUMZI5  HPP Lumezi   0 2 114.97 0.00000 0.00000 -14.018 -10.000 0.00000 -16.000 5.00000 -10.000                               F
ALURA 5  HPP LURA     0 2 114.98 0.00000 0.00000 -12.015 4.53379 0.00000 -16.000 5.00000 -10.000                               F
ALUSH 5Q Fict. shunt  1 0        0.00000 0.00000 0.00000 0.00000
ALUSHN5  LUSHNJE      0 0        32.1577 15.7820 0.00000 0.00000
AMALLA5  HPP MALLA    0 2 115.00 0.00000 0.00000 -6.0076 5.00000 0.00000 -11.000 5.00000 -10.000                               F
AMAMUR5  MAMURAS      0 0        4.82367 1.57820 0.00000 0.00000
AMARIN5  MARINZ       0 0        0.00000 0.00000 0.00000 0.00000
AMEMAL5  MEMALIAJ     0 0        1.60789 1.57820 0.00000 0.00000
AMOGLI2  HPP MOGLICE  0 2 213.38 0.00000 0.00000 -1.0013 -25.409 0.00000 -180.00 18.0000 -67.000                               F
APERME5  PERMET       0 0        1.60789 0.00000 0.00000 0.00000
APESHK5  PESHKOPI     0 0        6.43155 3.15639 0.00000 0.00000
APESHQ2  HPP PESHQESH 0 2 223.71 0.00000 0.00000 -13.039 -14.179 0.00000 -34.000 5.00000 -17.000                               F
APOGRD5  POGRADEC     0 0        14.4710 6.31278 0.00000 0.00000
APRELL5  HPP PRELL    0 2 115.00 0.00000 0.00000 -15.019 3.20626 0.00000 -70.000 5.00000 -10.000                               F
APRENJ5  PRENJAS      0 0        1.60789 0.00000 0.00000 0.00000
APROMA5  PORTO ROMA   0 0        19.2947 6.31278 0.00000 0.00000
AQENDE5  QENDER       0 0        65.9234 31.5639 0.00000 0.00000
ARAPU45  HPP RAPUN 4  0 2 111.49 0.00000 0.00000 -8.0000 -9.8317 0.00000 -8.0000 5.00000 -10.000                               F
ARENCI5  RENCI        0 0        3.21577 1.57820 0.00000 0.00000
AREPSI5  REPSI        0 0        3.21577 1.57820 0.00000 0.00000
ARRAZB5  RRAZHBULL2   0 0        0.00000 0.00000 0.00000 0.00000
ARRAZH2  RRASHBULL    0 0        0.00000 0.00000 0.00000 0.00000
ARRAZH5  RRAZHBULL1   0 0        0.00000 0.00000 0.00000 0.00000
ARUBIK5  RUBIK        0 0        3.21577 1.57820 0.00000 0.00000
ASARAN5  SARANDE      0 0        16.0789 7.89098 0.00000 0.00000
ASELEN5  SELENIC      0 0        6.43155 3.15639 0.00000 0.00000
ASELIT5  SELIT        0 0        94.8654 45.7677 0.00000 0.00000
ASETA 5  HPP Seta     0 2 115.08 0.00000 0.00000 -10.013 5.00000 0.00000 -70.000 5.00000 -10.000                               F
ASHARR2  SHARRE       0 0        20.9026 7.89098 0.00000 0.00000
ASHARR5  SHARRE       0 0        0.00000 0.00000 0.00000 0.00000
ASHKD15  SHKODER 1    0 0        27.3341 7.89098 0.00000 0.00000
ASHKD25  SHKODER 2    0 0        28.9419 14.2038 0.00000 0.00000
ASHKP15  HPP SHK 1    0 2 114.10 0.00000 0.00000 -10.013 -10.000 0.00000 -12.000 5.00000 -10.000                               F
ASHKP25  HPP SHK 2    0 2 114.13 0.00000 0.00000 -10.013 -10.000 0.00000 -12.000 5.00000 -10.000                               F
ASHKZT5  SHKOZET      0 0        32.1577 15.7820 0.00000 0.00000
ASHPEL5  HPP Shpella  0 2 115.00 0.00000 0.00000 -5.0064 -7.3076 0.00000 -11.000 5.00000 -10.000                               F
ASHUPE5  SHUPENZ      0 0        1.60789 0.00000 0.00000 0.00000
ASHUTR5  SHUTRI       0 0        0.00000 0.00000 0.00000 0.00000
ASLAB25  HPP Slabinj2 0 2 115.00 0.00000 0.00000 -5.0064 -7.3076 0.00000 -16.000 5.00000 -10.000                               F
ASLABI5  HPP SLABINJ  0 2 115.00 0.00000 0.00000 -6.0076 -4.0933 0.00000 -11.000 5.00000 -10.000                               F
ASUC  5  SUC          0 0        0.00000 0.00000 0.00000 0.00000
ASUKTH5  SUKT         0 0        14.4710 7.89098 0.00000 0.00000
ATEPEL5  TEPELENE     0 0        0.00000 0.00000 0.00000 0.00000
ATERNV5  HPP TERNOV   0 2 115.00 0.00000 0.00000 -7.0089 -8.8460 0.00000 -11.000 5.00000 -10.000                               F
ATIRA21  TIRANA2 400  0 0        0.00000 0.00000 0.00000 0.00000
ATIRA22  TIRANA2 220  0 0        0.00000 0.00000 0.00000 0.00000
ATIRA22Q Fict. shunt  1 0        0.00000 0.00000 0.00000 0.00000
ATIRA25  TIRANA       0 0        0.00000 0.00000 0.00000 0.00000
ATIRAN2  TIRANA 220   0 0        96.4733 39.4549 0.00000 0.00000
ATIRAN5  TIRANA       0 0        0.00000 0.00000 0.00000 0.00000
ATITAN2  TITAN        0 0        9.64733 4.73459 0.00000 0.00000
ATUNEL5  TUNEL        0 0        1.60789 0.00000 0.00000 0.00000
AULEZ 5  HPP ULEZ     0 2 114.18 0.00000 0.00000 -25.000 -10.000 0.00000 -25.000 5.00000 -10.000                               F
AUTRAK5  UZINA TRA    0 0        32.9617 11.0474 0.00000 0.00000
AUZNOV5  UZNOVE       0 0        4.82367 1.57820 0.00000 0.00000
AVDEJA2  HPP V DEJES  0 2 225.00 0.00000 0.00000 -188.24 -68.351 0.00000 -250.00 10.0000 -150.00                               F
AVDEJS5  VDEJES 5     0 0        0.00000 0.00000 0.00000 0.00000
AVDVJT5  VDEJES VJTR  0 0        4.82367 1.57820 0.00000 0.00000
AVLOR25  VLORA 2      0 0        0.00000 0.00000 0.00000 0.00000
AVLORE5  VLORE        0 0        0.00000 0.00000 0.00000 0.00000
AVLOTP2  TPPVLORA     0 0        0.00000 0.00000 0.00000 0.00000 0.00000 -110.00 18.0000 -67.000                               F
AVOJNI5  VOJNIK       0 0        1.60789 1.57820 0.00000 0.00000
AZEMLA1  ZEMLAK       0 0        0.00000 0.00000 0.00000 0.00000
AZEMLA5  ZEMBLAK      0 0        0.00000 0.00000 0.00000 0.00000
##ZBE
BAALNO31 AALNO150     0 0        0.00000 0.00000 0.00000 0.00000
BAALNO32 AALNO150     0 0        32.5552 6.72206 0.00000 0.00000
BAALST31 AALST150     0 0        32.4854 20.5221 0.00000 0.00000
BAALTR31 AALTR150     0 0        21.9433 3.47304 0.00000 0.00000
BAALTR32 AALTR150     0 0        21.5138 5.90834 0.00000 0.00000
BACHEN11 ACHEN380     0 0        34.1148 -16.090 0.00000 0.00000
BACHEN12 ACHEN380     0 0        0.00000 0.00000 0.00000 0.00000
BACHES11 ACHES380     0 0        2.36266 -1.9849 0.00000 0.00000
BAIRLI31 AIRLI150     0 0        21.5220 12.6591 0.00000 0.00000
BALEGR10 ALEGR380     0 0        0.00000 0.00000 0.00000 0.00000
BALEGR11 ALEGR380     0 0        0.00000 0.00000 0.00000 0.00000
BALEGR12 ALEGR380     0 0        0.00000 0.00000 0.00000 0.00000 0.00000 -1000.0 500.000 -500.00                               F
BALZ  31 ALZ 150      0 0        60.2398 6.16023 0.00000 0.00000
BALZ  32 ALZ 150      0 0        0.11435 1.02390 0.00000 0.00000
BALZ  33 ALZ 150      0 0        11.0563 -5.7720 0.00000 0.00000
BALZ  34 ALZ 150      0 0        71.1192 2.81910 -1.1695 -0.1168 0.00000 -4.6000 0.46000 -1.5180                               F
BAMERC31 AMERC150     0 0        0.00000 0.00000 0.00000 0.00000
BAMERC3C AMERC150     0 0        0.00000 0.00000 0.00000 0.00000
BAMERC3V AMERC 16     0 2 156.32 0.00000 0.00000 -191.24 73.6562 -96.000 -262.70 73.9823 -147.99                               F
BAMERC3W AMERC 12     0 2 157.57 0.00000 0.00000 -107.66 28.6695                                                               F
BAMOCO31 AMOCO150     0 0        68.1485 9.96672 -21.631 -2.1603                                                               F
BAMOCO32 AMOCO150     0 0        0.04964 0.20404 0.00000 0.00000
BANDUM1R ANDUM380     0 0        0.00000 0.00000 0.00000 0.00000
BANDUM30 ANDUM150     0 0        0.00000 0.00000 0.00000 0.00000
BANDUM31 ANDUM150     0 0        0.00000 0.00000 0.00000 0.00000
BANDUM32 ANDUM150     0 0        0.00000 0.00000 0.00000 0.00000
BANDUM33 ANDUM150     0 0        0.00000 0.00000 0.00000 0.00000
BANS  31 ANS 150      0 0        5.73140 7.06304 0.00000 0.00000
BANS  32 ANS 150      0 0        2.12579 -0.0414 0.00000 0.00000
BANTOI31 ANTOI150     0 0        38.7228 4.15244 0.00000 0.00000
BATOFI3A ATOFI150     0 0        0.02813 0.16410 0.00000 0.00000
BATOFI3B ATOFI150     0 0        5.03900 1.87822 0.00000 0.00000
BAUBAN11 AUBAN380     0 0        0.00000 0.00000 0.00000 0.00000
BAUBAN21 AUBAN220     0 0        32.9376 161.981 0.00000 0.00000
BAUBAN22 AUBAN220     0 0        0.00000 139.203 0.00000 0.00000
BAUBAN23 AUBAN220     0 0        0.00000 0.00000 0.00000 0.00000
BAUVEL32 AUVEL150     0 0        10.4124 -1.1948 0.00000 0.00000
BAUVEL33 AUVEL150     0 0        13.3419 0.07302 0.00000 0.00000
BAUVEL3R AUVEL150     0 0        13.2234 1.24535 0.00000 0.00000
BAVERN31 AVERN150     0 2 157.75 8.09362 -2.1251 -27.627 6.58000 0.00000 -32.000 6.58000 -27.000                               F
BAVERN32 AVERN150     0 0        0.00000 82.2862 0.00000 0.00000
BAVERN3R AVERN150     0 0        0.10855 0.69883 0.00000 0.00000
BAVERN3S AVERN150     0 0        0.10855 0.69883 0.00000 0.00000
BAVLGM11 AVLGM380     0 0        0.00000 0.00000 0.00000 0.00000
BAVLGM12 AVLGM380     0 0        0.00000 0.00000 0.00000 0.00000
BAVLGM13 AVLGM380     0 0        0.00000 0.00000 0.00000 0.00000
BAVLGM31 AVLGM150     0 0        0.00000 0.00000 0.00000 0.00000
BAVLGM32 AVLGM150     0 0        0.00000 0.00000 0.00000 0.00000
BAWIRS21 AWIRS220     0 0        42.2858 -4.4513 0.00000 0.00000
BAWIRS31 AWIRS150     0 0        0.00000 0.00000 0.00000 0.00000
BAWIRS3W AWIRS 15     0 0        0.00000 0.00000 -74.160 -39.382                 5.41394 -71.960                               F
BBAISY31 BAISY150     0 0        71.7598 -22.188 0.00000 0.00000
BBALEN31 BALEN150     0 0        0.00000 0.00000 0.00000 0.00000
BBALEN32 BALE+150     0 0        0.00000 0.00000 0.00000 0.00000
BBALEN3R BALEN150     0 0        0.00000 0.00000 0.00000 0.00000
BBALEN3_ BALEN150     0 0        0.00000 0.00000 0.00000 0.00000
BBASCO32 BASCO150     0 0        19.9437 1.85236 0.00000 0.00000
BBASCO3R BASCO150     0 0        0.01576 0.03248 0.00000 0.00000
BBASF 31 BASF 150     0 0        70.3005 23.4395 -18.769 -1.8745                                                               F
BBASF 32 BASF 150     0 0        74.3848 23.6318 0.00000 0.00000
BBASF 34 BASF 150     0 0        72.3042 29.7014 0.00000 0.00000
BBASF 3A BASF 150     0 0        78.3517 31.1595 0.00000 0.00000
BBASF 3B BASF 150     0 0        74.2690 23.2605 0.00000 0.00000
BBASF 3W BASF 21      0 2 155.28 0.00000 0.00000 -362.00 91.2581 -230.00 -362.00 125.346 -240.83                               F
BBASF 3_ BASF 150     0 0        0.06878 0.51068 0.00000 0.00000
BBASSW3R BASSW150     0 0        31.0060 20.1611 0.00000 0.00000
BBASTO2R BASTO220     0 0        0.02169 0.09504 0.00000 0.00000
BBATTI3R BATTI150     0 0        12.8585 0.79018 0.00000 0.00000
BBAUDO31 BAUDO150     0 0        0.00000 0.00000 0.00000 0.00000
BBAUDO32 BAUDO150     0 0        12.4221 -4.2378 0.00000 0.00000
BBAUDO3W BAUDO 24     0 0        0.00000 0.00000 0.00000 0.00000 -150.00 -336.60 125.120 -298.35                               F
BBAYMI3R BAYMI150     0 0        14.7935 -16.213 0.00000 0.00000
BBEERS3R BEERS150     0 0        0.00000 0.00000 0.00000 0.00000
BBEERS3S BEERS150     0 0        40.9651 4.15602 0.00000 0.00000
BBERIN31 BERIN150     0 0        55.0079 -0.5975 0.00000 0.00000
BBERIN32 BERIN150     0 0        0.00000 0.00000 0.00000 0.00000
BBERNE21 BERNE220     0 0        0.04067 0.03034 0.00000 0.00000
BBERST32 BERST150     0 0        6.56139 0.55705 0.00000 0.00000
BBERST3R BERST150     0 0        6.51568 0.49888 0.00000 0.00000
BBIFF+22 BIFF+220     0 0        0.00000 0.00000 0.00000 0.00000
BBINCH31 BINCH150     0 0        8.54657 0.58174 0.00000 0.00000
BBLANC31 BLANC150     0 0        5.68160 -41.573 0.00000 0.00000
BBLANC32 BLANC150     0 0        0.02754 0.07421 0.00000 0.00000
BBLTOR31 BLTOR150     0 0        0.00000 0.00000 0.00000 0.00000
BBLTOR32 BLTOR150     0 0        0.00000 0.00000 0.00000 0.00000
BBOLAL32 BOLAL150     0 0        0.00000 0.00000 0.00000 0.00000
BBOTCC32 BOTCC150     0 0        0.00000 0.00000 0.00000 0.00000
BBOTCC3R BOTCC150     0 0        26.7320 -3.5716 0.00000 0.00000
BBO_HF31 BO_HF150     0 0        1.52065 0.55713 0.00000 0.00000
BBRAIN31 BRAIN150     0 0        20.5502 2.11682 0.00000 0.00000
BBRESS31 BRESS150     0 0        0.02555 0.10603 0.00000 0.00000
BBRESS32 BRESS150     0 0        13.7197 3.63227 0.00000 0.00000
BBRUEG11 BRUEG 36     0 0        0.00000 53.5803 0.00000 0.00000
BBRUEG12 BRUEG380     0 0        0.00000 0.00000 0.00000 0.00000
BBRUEG1A BRUEG380     0 0        0.00000 0.00000 0.00000 0.00000
BBRUEG1S              0 0        0.00000 0.00000 0.00000 0.00000
BBRUEG31 BRUEG150     0 0        0.00000 0.00000 0.00000 0.00000
BBRUEG32 BRUEG150     0 0        0.00000 0.00000 0.00000 0.00000
BBRUEG3A BRUEG150     0 0        0.00000 0.00000 0.00000 0.00000
BBRUEG3B BRUEG150     0 0        0.00000 0.00000 0.00000 0.00000
BBRUGG31 BRUGG150     0 0        41.8830 81.9175 0.00000 0.00000
BBRUGG32 BRUGG150     0 0        24.6794 4.15092 0.00000 0.00000
BBRUME11 BRUME380     0 0        0.00000 0.00000 0.00000 0.00000
BBRUME12 BRUME380     0 0        19.3567 -11.277 0.00000 0.00000
BBRUME21 BRUME220     0 0        9.37822 -3.2430 0.00000 0.00000
BBRUMS2R BRUMS220     0 0        1.23545 -0.5006 0.00000 0.00000
BBRUST3R BRUST150     0 0        55.9036 5.27614 0.00000 0.00000
BBUGG+12 BUGG+380     0 0        0.00000 0.00000 0.00000 0.00000
BBUGG+1R BUGG+380     0 0        0.00000 0.00000 0.00000 0.00000
BBUIZI31 BUIZI150     0 0        45.4040 6.66207 -5.3525 -0.9897                                                               F
BBURCH31 BURCH150     0 0        6.61660 -1.3436 0.00000 0.00000
BBURCH32 BURCH150     0 0        6.68790 -2.6991 0.00000 0.00000
BBVERW32 BVERW150     0 0        14.2963 -2.0473 0.00000 0.00000
BBVERW3A BVERW150     0 0        13.2486 -1.3850 -28.782 -3.8648                                                               F
BBVERW3R BVERW150     0 0        0.00000 0.00000 0.00000 0.00000
BBVREN31 BVREN150     0 0        12.4903 1.28111 0.00000 0.00000
BBVREN32 BVREN150     0 0        18.1631 2.81663 0.00000 0.00000
BBWTON31 BWTON150     0 0        10.1087 8.18478 0.00000 0.00000
BCAMOC31 CAMOC150     0 0        0.01631 0.00789 0.00000 0.00000
BCARAL3R CARAL150     0 0        2.53182 0.34757 0.00000 0.00000
BCBR3A32 CBR3A150     0 0        0.03754 0.11921 0.00000 0.00000
BCBR3A33 CBR3A150     0 0        0.05237 0.33222 0.00000 0.00000
BCFINF37 CFINF150     0 0        0.00000 0.00000 -43.808 -5.1613                                                               F
BCFINF38 CFINF150     0 0        0.00000 0.00000 -87.268 -4.8387                                                               F
BCHACO31 CHACO150     0 0        5.02445 -3.3706 0.00000 0.00000
BCHAMP10 CHAMP 70     0 0        65.7736 -18.743 -34.656 26.6924 0.00000 -34.656 26.6924 -6.0000                               F
BCHAMP11 CHAMP380     0 0        0.00000 0.00000 0.00000 0.00000
BCHAMP12 CHAMP380     0 0        0.00000 0.00000 0.00000 0.00000
BCHARL3R CHARL150     0 0        0.01751 0.00514 0.00000 0.00000
BCHARL3S CHARL150     0 0        9.43356 1.47758 0.00000 0.00000
BCHER+3R CHER+150     0 0        0.00000 0.00000 0.00000 0.00000
BCHERA34 CHERA150     0 0        1.98146 0.70199 0.00000 0.00000
BCHERA3R CHERA150     0 0        9.03781 0.61171 0.00000 0.00000
BCHIEV31 CHIEV150     0 0        14.1868 2.72698 0.00000 0.00000
BCHIEV32 CHIEV150     0 0        0.00000 0.00000 0.00000 0.00000
BCKNIP31 CKNIP150     0 0        0.00000 0.00000 0.00000 0.00000
BCKNIP3W CKNIP 16     0 0        0.00000 0.00000 0.00000 0.00000 -104.00 -312.60 114.260 -267.78                               F
BCLABE31 CLABE150     0 0        14.6264 3.68213 0.00000 0.00000
BCLABE3R CLABE150     0 0        0.00000 0.00000 0.00000 0.00000
BCLABE3S CLABE150     0 0        0.00000 0.00000 0.00000 0.00000
BCLANG31 CLANG150     0 0        37.8018 4.78900 0.00000 0.00000
BCLANG32 CLANG150     0 0        38.0230 4.84768 0.00000 0.00000
BCLANG33 CLANG150     0 0        9.64113 1.75513 0.00000 0.00000
BCMARE31 CMARE150     0 0        0.01744 0.01536 0.00000 0.00000
BCMARE3W CMARE 20     0 0        0.01453 0.10541 0.00000 0.00000 -173.00 -383.00 143.289 -158.17                               F
BCOO  11 COO 380      0 0        0.00000 0.00000 0.00000 0.00000
BCOO  12 COO 380      0 0        0.00000 0.00000 0.00000 0.00000
BCOO  1R COO 20       0 0        0.00000 0.00000 0.00000 0.00000 145.000 -144.00 39.9800 -97.260                               F
BCOO  1S COO 20       0 0        0.00000 0.00000 0.00000 0.00000 145.000 -144.00 39.9800 -97.260                               F
BCOO  1T COO 20       0 0        0.00000 0.00000 0.00000 0.00000 145.000 -144.00 39.9800 -97.260                               F
BCOO  1U COO 20       0 0        0.00000 0.00000 0.00000 0.00000 200.000 -215.00 65.3700 -136.03                               F
BCOO  1V COO 20       0 0        0.00000 0.00000 0.00000 0.00000 200.000 -215.00 65.3700 -136.03                               F
BCOO  1W COO 20       0 0        0.00000 0.00000 0.00000 0.00000 200.000 -215.00 65.3700 -136.03                               F
BCORBA3R CORBA150     0 0        14.9424 -10.545 0.00000 0.00000
BCOURC11 COURC380     0 0        0.00000 0.00000 0.00000 0.00000
BCOURC12 COURC380     0 0        0.00000 0.00000 0.00000 0.00000
BCOURC31 COURC150     0 0        0.00000 0.00000 0.00000 0.00000
BCQUIN31 CQUIN150     0 0        0.00000 0.00000 0.00000 0.00000
BCZWIJ31 CZWIJ150     0 0        46.4702 7.14000 0.00000 0.00000
BCZWIJ32 CZWIJ150     0 0        0.00000 0.00000 0.00000 0.00000
BCZWIJ3U CZWIJ 11     0 0        0.00000 0.00000 -32.742 -2.7376 -16.000 -39.000 0.65556 -27.481                               F
BCZWIJ3V CZWIJ 11     0 0        0.00000 0.00000 -32.742 -2.8859 -16.000 -39.000 -0.6831 -33.433                               F
BCZWIJ3W CZWIJ 11     0 0        0.00000 0.00000 -32.642 -3.4946 -16.000 -39.000 0.66741 -27.467                               F
BDAMPL31 DAMPL150     0 0        32.2372 7.41316 0.00000 0.00000
BDAMPL32 DAMPL150     0 0        0.00000 0.00000 0.00000 0.00000
BDAMPR31 DAMPR150     0 0        6.46977 -1.5900 0.00000 0.00000
BDAMPR32 DAMPR150     0 0        0.00000 0.00000 0.00000 0.00000
BDAMPR3R DAMPR150     0 0        0.00000 0.00000 0.00000 0.00000
BDAMPS35 DAMPS150     0 0        3.54402 0.08451 0.00000 0.00000
BDAMPS36 DAMPS150     0 0        3.54365 0.08451 0.00000 0.00000
BDEIN+32 DEIN+150     0 0        0.00000 0.00000 0.00000 0.00000
BDEIN+3R DEIN+150     0 0        0.00000 0.00000 0.00000 0.00000
BDEINZ31 DEINZ150     0 0        11.9724 3.51375 0.00000 0.00000
BDEINZ32 DEINZ150     0 0        11.9303 3.51983 0.00000 0.00000
BDESG+3R DESG+150     0 0        0.00000 0.00000 0.00000 0.00000
BDESGM31 DESGM150     0 0        9.69156 0.77603 0.00000 0.00000
BDHANI3A DHANI150     0 0        24.5331 4.48478 0.00000 0.00000
BDHANI3B DHANI150     0 0        0.00000 0.00000 0.00000 0.00000
BDHANI3C DHANI150     0 0        37.8219 4.76358 0.00000 0.00000
BDIEST3R DIEST150     0 0        60.9951 -23.014 0.00000 0.00000
BDILB+31 DILB+150     0 0        0.00000 0.00000 0.00000 0.00000
BDILBE3R DILBE150     0 0        17.9639 -5.2076 0.00000 0.00000
BDOEL 11 DOEL 380     0 0        0.00000 0.00000 0.00000 0.00000
BDOEL 12 DOEL 380     0 0        0.00000 0.00000 0.00000 0.00000
BDOEL 1A DOEL 380     0 0        0.00000 0.00000 0.00000 0.00000
BDOEL 1B DOEL 380     0 0        0.00000 0.00000 0.00000 0.00000
BDOEL 1T DOEL 18      0 2 407.85 0.00000 0.00000 -458.70 -82.230 -182.00 -458.70 52.3186 -260.39                               F
BDOEL 1U DOEL 18      0 2 407.41 0.00000 0.00000 -453.20 -83.982 -182.00 -453.20 52.8432 -259.79                               F
BDOEL 1V DOEL 24      0 2 407.70 0.00000 0.00000 -1025.0 -175.03 -500.00 -1025.0 110.350 -560.15                               F
BDOEL 1W DOEL 24      0 2 401.98 0.00000 0.00000 -1038.4 -288.85 -500.00 -1038.4 110.770 -575.00                               F
BDOEL 31 DOEL 150     0 0        0.50076 0.00000 0.00000 0.00000
BDOEL 32 DOEL 150     0 0        0.00000 0.00000 0.00000 0.00000
BDOTT+3R DOTT+150     0 0        0.00000 0.00000 0.00000 0.00000
BDOTTI31 DOTTI150     0 0        0.00000 0.00000 -0.4252 1.36993                                                               F
BDROGE11 DROGE380     0 0        0.00000 0.00000 0.00000 0.00000
BDROGE31 DROGE150     0 0        59.6967 70.5644 0.00000 0.00000
BDROGE33 DROGE150     0 0        44.0703 -18.285 0.00000 0.00000
BDROGE3U DROGE 15     0 0        0.00000 0.00000 0.00000 0.00000 -50.400 -153.60 36.3300 -140.10                               F
BDROGE3V DROGE 15     0 0        0.00000 0.00000 0.00000 0.00000 -50.400 -153.60 36.3100 -136.99                               F
BDROGE3W DROGE 15     0 0        0.00000 0.00000 0.00000 0.00000 -26.300 -172.30 36.3500 -125.52                               F
BDRONG3R DRONG150     0 0        33.4346 3.48141 0.00000 0.00000
BEEKLN10 EEKLN380     0 0        0.00000 0.00000 0.00000 0.00000
BEEKLN11 EEKLN380     0 0        0.00000 0.00000 0.00000 0.00000
BEEKLN31 EEKLN150     0 0        0.00000 0.00000 -2.7000 -0.8887                                                               F
BEEKLN32 EEKLN150     0 0        0.00000 78.8585 -9.8747 -0.9607                                                               F
BEEKLO32 EEKLO150     0 0        22.2039 0.62382 0.00000 0.00000
BEEKLO3R EEKLO150     0 0        22.3940 0.61609 0.00000 0.00000
BEISDE32 EISDE150     0 0        23.4842 -16.779 0.00000 0.00000
BEISDE3A EISDE150     0 0        31.2532 11.4617 0.00000 0.00000
BEIZE+3R EIZE+150     0 0        0.00000 0.00000 0.00000 0.00000
BEIZER31 EIZER150     0 0        16.1189 0.89982 0.00000 0.00000
BEKERE31 EKERE150     0 0        21.3289 -4.4528 0.00000 0.00000
BESCH 2C ESCH 220     0 0        0.00000 0.00000 0.00000 0.00000
BESCH 2E ESCH 220     0 0        0.00000 0.00000 0.00000 0.00000
BESSO 31 ESSO 150     0 0        22.2029 15.1638 0.00000 0.00000
BESSO 32 ESSO 150     0 0        22.2116 21.7582 0.00000 0.00000
BESSO 3K ESSO 150     0 0        0.00000 0.00000 0.00000 0.00000
BESSO 3W ESSO 15      0 0        0.00000 0.00000 -125.00 -11.029 -125.00 -125.00 1.19991 -74.549                               F
BESSO+32 ESSO+150     0 0        0.00000 0.00000 0.00000 0.00000
BESSO+3R ESSO+150     0 0        0.00000 0.00000 0.00000 0.00000
BESSOC31 ESSOC150     0 0        26.7394 4.34870 0.00000 0.00000
BESSOC32 ESSOC150     0 0        26.7398 7.69661 0.00000 0.00000
BEUPEN32 EUPEN150     0 0        26.0878 25.8077 0.00000 0.00000
BEUPEN3R EUPEN150     0 0        19.2024 -27.718 0.00000 0.00000
BFAFER31 FAFER150     0 0        7.50195 9.01010 0.00000 0.00000
BFAFER3R FAFER150     0 0        55.6995 3.04638 0.00000 0.00000
BFARCI32 FARCI150     0 0        0.01595 0.03288 0.00000 0.00000
BFARCI3R FARCI150     0 0        14.6229 1.43849 0.00000 0.00000
BFELUY3R FELUY150     0 0        6.17425 2.36191 0.00000 0.00000
BFIBER3R FIBER150     0 0        13.1114 4.39853 0.00000 0.00000
BFLEUR31 FLEUR150     0 0        5.54938 1.09471 0.00000 0.00000
BFLEUR32 FLEUR150     0 0        10.2438 0.66778 0.00000 0.00000
BFLORA32 FLORA150     0 0        37.6408 1.65591 0.00000 0.00000
BFLORA3R FLORA150     0 0        37.6412 1.67092 0.00000 0.00000
BFOC  3R FOC 150      0 0        30.7383 13.5587 0.00000 0.00000
BFOC+ 3R FOC+ 150     0 0        0.00000 0.00000 0.00000 0.00000
BFONT+3  FONT+150     0 0        0.00000 0.00000 0.00000 0.00000
BFONTA32 FONTA150     0 0        8.79839 -0.1046 0.00000 0.00000
BFONTA33 FONTA150     0 0        0.01633 0.03365 0.00000 0.00000
BFONTA3R FONT+150     0 0        0.00000 0.00000 0.00000 0.00000
BFORES3A FORES150     0 0        22.6238 2.14875 0.00000 0.00000
BFORES3B FORES150     0 0        0.00000 0.00000 0.00000 0.00000
BGALGE11 GALGE380     0 0        0.00000 0.00000 0.00000 0.00000
BGASTH3A GASTH150     0 0        53.4420 25.2408 0.00000 0.00000
BGAURA32 GAURA150     0 0        0.04581 0.19891 0.00000 0.00000
BGAURA3R GAURA150     0 0        36.3689 11.8846 0.00000 0.00000
BGENPM31 GENPM150     0 0        21.0797 7.42384 0.00000 0.00000
BGEZEL10 GEZEL380     0 0        0.00000 0.00000 0.00000 0.00000
BGEZEL11 GEZEL380     0 0        0.00000 0.00000 0.00000 0.00000
BGEZEL12 GEZEL380     0 0        0.00000 0.00000 0.00000 0.00000
BGEZEL13 GEZEL380     0 0        0.00000 0.00000 0.00000 0.00000
BGEZEL14 GEZEL380     0 0        0.00000 0.00000 0.00000 0.00000
BGEZEL15 GEZEL380     0 0        0.00000 0.00000 0.00000 0.00000
BGEZEL16 GEZEL380     0 0        0.00000 130.766 0.00000 0.00000
BGEZEL17 GEZEL380     0 0        0.00000 130.766 0.00000 0.00000
BGILLY37 GILLY150     0 0        22.4088 3.67294 0.00000 0.00000
BGODSH31 GODSH150     0 0        64.9877 6.46624 0.00000 0.00000
BGOSS+32 GOSS+150     0 0        0.00000 0.00000 0.00000 0.00000
BGOSS+3R GOSS+150     0 0        0.00000 0.00000 0.00000 0.00000
BGOSSE31 GOSSE150     0 0        0.04049 0.08654 0.00000 0.00000
BGOSSE32 GOSSE150     0 0        15.7150 2.94304 0.00000 0.00000
BGOUY 11 GOUY 380     0 0        0.00000 0.00000 0.00000 0.00000
BGOUY 12 GOUY 380     0 0        0.00000 0.00000 0.00000 0.00000
BGOUY 31 GOUY 150     0 0        12.5325 1.64960 0.00000 0.00000
BGOUY 32 GOUY 150     0 0        47.7979 -20.563 0.00000 0.00000
BGRAMM1A GRAMM380     0 0        0.00000 0.00000 0.00000 0.00000
BGRAMM1B GRAMM380     0 0        0.00000 0.00000 0.00000 0.00000
BGRAMM1C GRAMM380     0 0        0.00000 0.00000 0.00000 0.00000
BGRAMM1D GRAMM380     0 0        0.00000 0.00000 0.00000 0.00000
BGRAMM3A GRAMM150     0 0        0.00000 0.00000 0.00000 0.00000
BGRAMM3B GRAMM150     0 0        0.00000 0.00000 0.00000 0.00000
BGRIMB32 GRIMB150     0 0        19.5934 1.49871 0.00000 0.00000
BGRIMB3R GRIMB150     0 0        0.00000 0.00000 0.00000 0.00000
BHAM  32 HAM 150      0 0        25.8705 3.25439 0.00000 0.00000
BHAM  3R HAM 150      0 0        34.1511 12.7031 0.00000 0.00000
BHARE+32 HARE+150     0 0        0.00000 0.00000 0.00000 0.00000
BHARE+3R HARE+150     0 0        0.00000 0.00000 0.00000 0.00000
BHAREL31 HAREL150     0 0        45.1132 3.48723 0.00000 0.00000
BHAREL32 HAREL150     0 0        30.5740 -1.4954 0.00000 0.00000
BHARMI3R HARMI150     0 0        0.00000 0.00000 -6.2305 36.7677                                                               F
BHARWI3R HARWI150     0 0        0.00000 0.00000 0.00000 0.00000
BHARYD31 HARYD150     0 0        22.2466 2.78507 0.00000 0.00000
BHAVE731 HAVE7150     0 0        0.00000 0.00000 -0.2014 -0.9163                                                               F
BHAVE732 HAVE7150     0 0        0.68421 0.48173 -0.1993 -0.8220                                                               F
BHBRUG31 HBRUG150     0 0        0.00000 0.00000 0.00000 0.00000
BHBRUG32 HBRUG150     0 0        0.00000 0.00000 0.00000 0.00000
BHBRUG33 HBRUG150     0 0        0.00000 0.00000 0.00000 0.00000
BHBRUG3U HBRUG 15     0 0        0.00000 0.00000 0.00000 0.00000 -55.000 -159.00 53.6900 -99.120                               F
BHBRUG3V HBRUG 15     0 0        0.00000 0.00000 0.00000 0.00000 -55.000 -158.00 53.6900 -98.030                               F
BHBRUG3W HBRUG 15     0 0        0.00000 0.00000 0.00000 0.00000 -25.600 -140.60 53.6900 -88.290                               F
BHEIM+32 HEIM+150     0 0        0.00000 0.00000 0.00000 0.00000
BHEIMO31 HEIMO150     0 0        14.8917 1.90848 0.00000 0.00000
BHEIMO3R HEIMO150     0 0        0.00000 0.00000 0.00000 0.00000
BHEIMO3S HEIMO150     0 0        0.00000 0.00000 0.00000 0.00000
BHEINS23 HEINS220     0 0        12.4619 -27.758 0.00000 0.00000
BHEIST31 HEIST150     0 0        4.79996 -0.4901 0.00000 0.00000
BHEIST32 HEIST150     0 0        11.9768 0.26926 0.00000 0.00000
BHELIA3R HELIA150     0 0        60.8230 22.0445 0.00000 0.00000
BHERCU32 HERCU150     0 0        0.03085 0.15092 0.00000 0.00000
BHERCU3R HERCU150     0 0        21.1240 5.56814 0.00000 0.00000
BHERDE32 HERDE150     0 0        0.02553 0.02341 0.00000 0.00000
BHERDE3R HERDE150     0 0        1.95892 -0.8137 0.00000 0.00000
BHEULE31 HEULE150     0 0        24.0631 4.31911 0.00000 0.00000
BHEZE 31 HEZE 150     0 0        64.9161 31.4685 -6.0063 1.46765                                                               F
BHOEN+32 HOEN+150     0 0        0.00000 0.00000 0.00000 0.00000
BHOEN+3R HOEN+150     0 0        0.00000 0.00000 0.00000 0.00000
BHOOGS3R HOOGS150     0 0        6.81435 0.08933 -26.319 -6.0589                                                               F
BHORTA10 HORTA380     0 0        0.00000 0.00000 0.00000 0.00000
BHORTA11 HORTA380     0 0        0.00000 0.00000 0.00000 0.00000
BHORTA12 HORTA380     0 0        0.00000 0.00000 0.00000 0.00000
BHORTA13 HORTA380     0 0        0.00000 0.00000 0.00000 0.00000
BHOUF+2R HOUF+220     0 0        0.00000 0.00000 0.00000 0.00000
BHOUFF21 HOUFF220     0 0        0.00000 0.00000 -13.955 -5.0813                                                               F
BHOUT+3R HOUT+150     0 0        0.00000 0.00000 0.00000 0.00000
BHOUTH31 HOUTH150     0 0        59.6527 3.76301 0.00000 0.00000
BHSART3R HSART150     0 0        0.82847 -1.8513 0.00000 0.00000
BIEPER31 IEPER150     0 0        28.9018 -3.6336 -4.6988 -0.4691                                                               F
BIEPNO31 IEPNO150     0 0        11.3294 4.20289 0.00000 0.00000
BIEPNO3R IEPNO150     0 0        10.7433 4.14937 0.00000 0.00000
BIXELL30 IXELL150     0 0        0.00000 0.00000 0.00000 0.00000
BIXELL31 IXELL150     0 0        0.00000 0.00000 0.00000 0.00000
BIXELL32 IXELL150     0 0        0.00000 0.00000 0.00000 0.00000
BIXELL33 IXELL150     0 0        0.00000 0.00000 0.00000 0.00000
BIXELL34 IXELL150     0 0        0.00000 0.00000 0.00000 0.00000
BIXELL35 IXELL150     0 0        0.00000 0.00000 0.00000 0.00000
BIXELL36 IXELL150     0 0        0.00000 0.00000 0.00000 0.00000
BIXELL37 IXELL150     0 0        0.00000 0.00000 0.00000 0.00000
BIXELL38 IXELL150     0 0        0.00000 0.00000 0.00000 0.00000
BIXELL39 IXELL150     0 0        18.4396 -11.698 0.00000 0.00000
BIXELL3A IXELL150     0 0        0.00000 0.00000 0.00000 0.00000
BIXELL3B IXELL150     0 0        19.3891 2.34594 0.00000 0.00000
BIXELL3C IXELL150     0 0        36.0531 3.13982 0.00000 0.00000
BIZGEM12 IZGEM380     0 0        0.00000 0.00000 0.00000 0.00000
BIZGEM1R IZGEM380     0 0        0.00000 0.00000 0.00000 0.00000
BIZGEM31 IZGEM150     0 0        0.00000 0.00000 0.00000 0.00000
BIZGEM32 IZGEM150     0 0        16.3274 -75.509 0.00000 0.00000
BJEMAP3R JEMAP150     0 0        18.9388 3.63310 0.00000 0.00000
BJUPIL21 JUPIL220     0 0        0.00000 0.00000 0.00000 0.00000
BJUPIL22 JUPIL220     0 0        0.00000 0.00000 0.00000 0.00000
BJUPIL32 JUPIL150     0 0        0.00000 0.00000 0.00000 0.00000
BJUPIL3R JUPIL150     0 0        0.00000 0.00000 0.00000 0.00000
BKALLO31 KALLO150     0 0        0.07809 0.61907 0.00000 0.00000
BKALLO32 KALLO150     0 0        0.00000 0.00000 0.00000 0.00000
BKEER+3R KEER+150     0 0        0.00000 0.00000 0.00000 0.00000
BKENNE32 KENNE150     0 0        31.7412 1.88937 0.00000 0.00000
BKENNE3R KENNE150     0 0        32.5530 0.84540 0.00000 0.00000
BKETEN31 KETEN150     0 0        1.78960 -2.6649 -8.6514 6.30592                                                               F
BKETEN32 KETEN150     0 0        0.00000 0.00000 -8.6697 7.49769                                                               F
BKOBB+3R KOBB+150     0 0        0.00000 0.00000 0.00000 0.00000
BKOBBE31 KOBBE150     0 0        0.00000 0.00000 0.00000 0.00000
BKOKSI31 KOKSI150     0 0        56.7771 18.8447 0.00000 0.00000
BKOKSI32 KOKSI150     0 0        0.00000 0.00000 0.00000 0.00000
BKOKSI3A KOKSI150     0 0        30.3316 3.50686 0.00000 0.00000
BKRUSS31 KRUSS150     0 2 156.55 85.1939 25.4106 -18.849 12.9732 0.00000 -25.000 49.3300 -49.330                               F
BKRUSS32 KRUSS150     0 0        32.5819 0.27095 0.00000 0.00000
BKUUR+3R KUUR+150     0 0        0.00000 0.00000 0.00000 0.00000
BKUURN31 KUURN150     0 0        9.47425 2.27309 0.00000 0.00000
BLACRO30 LACRO150     0 0        0.00000 0.00000 0.00000 0.00000
BLACRO31 LACRO150     0 0        0.00000 0.00000 0.00000 0.00000
BLACRO32 LACRO150     0 0        0.00000 0.00000 0.00000 0.00000
BLACRO33 LACRO150     0 0        0.00000 0.00000 0.00000 0.00000
BLACRO34 LACRO150     0 0        0.00000 0.00000 0.00000 0.00000
BLACRO35 LACRO150     0 0        0.00000 0.00000 0.00000 0.00000
BLACRO36 LACRO150     0 0        0.00000 0.00000 0.00000 0.00000
BLACRO37 LACRO150     0 0        0.00000 0.00000 0.00000 0.00000
BLACRO38 LACRO150     0 0        0.70371 0.84462 0.00000 0.00000
BLACRO39 LACRO150     0 0        0.01570 0.03237 0.00000 0.00000
BLACRO3A LACRO150     0 0        25.6348 2.87066 0.00000 0.00000
BLANAK31 LANAK150     0 0        63.1382 26.9061 -0.0147 -0.0015 0.00000 -1.2000 1.26000 -1.2600                               F
BLANAK3W LANAK 10     0 2 148.88 20.7340 1.85584 -41.500 -1.6965 -18.000 -41.500 0.75101 -23.966                               F
BLANDN3R LANDN150     0 0        8.77672 0.67982 0.00000 0.00000
BLANGE31 LANGE150     0 0        0.00000 0.00000 0.00000 0.00000
BLANGE32 LANGE150     0 0        0.00000 0.00000 0.00000 0.00000
BLANLO31 LANLO150     0 0        26.2392 12.6590 0.00000 0.00000
BLANLO32 LANLO150     0 0        34.7445 10.4354 0.00000 0.00000
BLATO+2R LATO+220     0 0        0.00000 0.00000 0.00000 0.00000
BLATOU21 LATOU220     0 0        9.25890 4.14699 0.00000 0.00000
BLATRO21 LATRO220     0 0        26.7463 6.57154 0.00000 0.00000
BLATRO22 LATRO220     0 0        26.7463 6.57154 0.00000 0.00000
BLEES+32 LEES+150     0 0        0.00000 0.00000 0.00000 0.00000
BLEES+3R LEES+150     0 0        0.00000 0.00000 0.00000 0.00000
BLEVAL21 LEVAL220     0 0        0.00000 0.00000 0.00000 0.00000
BLEVAL22 LEVAL220     0 0        0.00000 0.00000 0.00000 0.00000
BLEVAL2U LEVAL 15     0 0        0.00000 0.00000 0.00000 0.00000 -72.000 -145.00 20.1100 -96.090                               F
BLEVAL2V LEVAL 15     0 0        0.00000 0.00000 0.00000 0.00000 -72.000 -145.00 20.1100 -96.120                               F
BLEVAL2W LEVAL 15     0 0        0.00000 0.00000 0.00000 0.00000 -120.00 -169.50 20.1100 -96.090                               F
BLIEF+1R LIEF+380     0 0        0.00000 0.00000 0.00000 0.00000
BLIEF+1S LIEF+380     0 0        0.00000 0.00000 0.00000 0.00000
BLIER 3R LIER 150     0 0        23.7233 -1.5556 0.00000 0.00000
BLIER 3T LIER 150     0 0        24.5073 3.36249 -9.1915 -4.7631                                                               F
BLIGNE32 LIGNE150     0 0        10.9738 3.01359 0.00000 0.00000
BLIGNE3R LIGNE150     0 0        7.93273 -0.9529 0.00000 0.00000
BLILLO11 LILLO380     0 0        0.00000 0.00000 0.00000 0.00000
BLILLO12 LILLO380     0 0        0.00000 0.00000 0.00000 0.00000
BLILLO31 LILLO150     0 0        16.9449 42.4686 0.00000 0.00000
BLILLO32 LILLO150     0 0        0.00000 0.00000 0.00000 0.00000
BLILLO33 LILLO150     0 0        0.00000 0.00000 0.00000 0.00000
BLINT 31 LINT 150     0 0        0.00000 0.00000 0.00000 0.00000
BLINT 32 LINT 150     0 0        0.00000 0.00000 0.00000 0.00000
BLINTT12 LINT 380     0 0        0.00000 0.00000 0.00000 0.00000
BLINTT1R LINT 380     0 0        0.00000 0.00000 0.00000 0.00000
BLIXHE11 LIXHE380     0 0        0.00000 0.00000 0.00000 0.00000
BLIXHE12 LIXHE380     0 0        0.00000 0.00000 0.00000 0.00000
BLIXHE27 LIXHE220     0 0        36.6435 6.32250 0.00000 0.00000
BLIXHE31 LIXHE150     0 0        0.00000 0.00000 0.00000 0.00000
...